Geom Title=07080102000898
Program Version=4.00
Viewing Rectangle= 530850.360145874 , 532065.708884888 , 4812605.47212097 , 4811981.24986389 

River Reach=07080102000898  ,07080102000898  
Reach XY= 1676 
531923.7337036134812503.58929443531923.6519165044812502.70727539
531923.5698852544812501.82531738531923.4880981454812500.94329834
 531923.40612793 4812500.0612793531922.7540893554812499.34448242
531922.1019287114812498.62750244531921.4497070314812497.91052246
531920.7974853524812497.19372559531920.1455078134812496.47668457
531919.493286133 4812495.7598877531918.8411254884812495.04290771
531918.1889038094812494.32611084 531917.536926274812493.60913086
 531916.884704594812492.89227295 531916.232482914812492.17529297
531915.5803222664812491.45831299531914.7772827154812490.90393066
531913.974304199 4812490.3493042531913.1713256844812489.79492188
531912.3682861334812489.24029541531911.5653076174812488.68591309
531910.7620849614812488.13128662531909.9591064454812487.57672119
 531909.156127934812487.02227783531908.353088379 4812486.4677124
531907.5501098634812485.91333008531906.7470703134812485.35870361
531905.9440917974812484.80432129531905.1409301764812484.24969482
531904.6638793954812483.45568848531904.1870727544812482.66168213
531903.7098999024812481.86767578531903.2329101564812481.07373047
 531902.755920414812480.27972412531902.7263183594812479.36108398
531902.6967163094812478.44250488531902.6671142584812477.52392578
531902.6373291024812476.60528564531902.6077270514812475.68670654
   531902.578125 4812474.7678833531902.548522949 4812473.8494873
531902.518676758 4812472.9307251531902.4890747074812472.01208496
531901.8433227544812471.36627197531901.1976928714812470.72052002
531900.5518798834812470.07470703 531899.906127934812469.42889404
531899.1613159184812469.11090088531898.4163208014812468.79272461
531897.671508789 4812468.4744873531896.9265136724812468.15631104
531896.0350952154812468.02868652531895.1434936524812467.90112305
531894.2520751954812467.77349854531893.3604736334812467.64587402
531892.5164794924812467.34771729531891.6727294924812467.04968262
531890.8286743164812466.75152588531889.9849243164812466.45330811
531889.1409301764812466.15527344   531888.296875 4812465.8571167
   531887.4531254812465.55889893531886.6091308594812465.26068115
531885.8151245124812464.70611572531885.0211181644812464.15130615
531884.2271118164812463.59667969531883.4331054694812463.04187012
531882.6390991214812462.48712158531882.0446777344812461.82550049
531881.4505004884812461.16387939531880.856079102 4812460.5020752
 531880.261718754812459.84051514531879.6672973634812459.17889404
531879.0728759774812458.51708984531878.1795043954812458.07049561
531877.2858886724812457.62371826 531876.392517094812457.17687988
531875.4990844734812456.73028564531874.605712891 4812456.2835083
531873.7122802734812455.83673096531872.8187255864812455.39007568
531871.9252929694812454.94329834531871.1312866214812454.46789551
531870.3372802734812453.99249268531869.5432739264812453.51690674
531868.7493286134812453.04150391531867.9553222664812452.56591797
531867.1920776374812451.92468262531866.429077148 4812451.2835083
531865.6658935554812450.64227295531864.9027099614812450.00091553
531864.1395263674812449.35968018531863.3762817384812448.71832275
 531862.61328125 4812448.0770874531861.8500976564812447.43591309
531861.0869140634812446.79467773531860.3237304694812446.15332031
 531859.560485844812445.51208496531858.7973022464812444.87072754
531858.0341186524812444.22949219531857.5280761724812443.42028809
531857.0222778324812442.61108398531856.5162963874812441.80187988
531856.0103149414812440.99267578531855.5042724614812440.18328857
531855.2642822274812439.25872803531855.0242919924812438.33428955
531854.784301758  4812437.409729531854.5441284184812436.48510742
531854.3040771484812435.56048584531854.0640869144812434.63592529
531854.0640869144812433.77648926531854.0640869144812432.91687012
531854.0640869144812432.05749512531854.0640869144812431.19787598
531854.0640869144812430.33831787531854.2847290044812429.36810303
531854.5053100594812428.39788818531854.7258911134812427.42749023
531854.9462890634812426.45727539531855.1668701174812425.48687744
531855.3875122074812424.51672363531855.6080932624812423.54650879
531855.8286743164812422.57611084531856.049072266  4812421.605896
531856.2697143554812420.63549805 531856.49029541 4812419.6652832
531856.7108764654812418.69488525531856.9312744144812417.72467041
531857.151916504 4812416.7545166531857.3724975594812415.78411865
531857.5930786134812414.81390381531857.8134765634812413.84368896
531858.0341186524812412.87329102531858.2327270514812411.90612793
531858.4312744144812410.93890381531858.6298828134812409.97149658
531858.8286743164812409.00427246531859.0270996094812408.03710938
531859.2257080084812407.06970215531859.4243164064812406.10247803
531859.6229248054812405.13531494531859.8214721684812404.16790771
531860.0200805664812403.20068359531860.2186889654812402.23352051
531860.4172973634812401.26629639531860.6159057624812400.29888916
 531860.814514164812399.33172607531861.0131225594812398.36450195
531861.2117309574812397.39709473 531861.576110844812396.48547363
531861.9404907234812395.57409668  531862.30468754812394.66247559
531862.6691284184812393.75091553531863.0333251954812392.83947754
531863.3977050784812391.92791748531863.7620849614812391.01629639
531864.1262817384812390.10467529531864.4907226564812389.19329834
531864.8551025394812388.28167725531865.2192993164812387.37011719
531865.5836791994812386.45849609531865.947875977  4812385.546875
531866.3123168954812384.63549805531866.6766967774812383.72387695
531867.0408935554812382.81231689531867.6901245124812382.05450439
531868.3391113284812381.29669189 531868.988281254812380.53887939
531869.6373291024812379.78088379531870.2864990234812379.02307129
 531870.935485844812378.26531982531871.5844726564812377.50750732
531872.2337036134812376.74969482531872.8828735354812375.99188232
531873.5319213874812375.23388672531874.1809082034812374.47607422
531874.4459228524812373.54992676531874.7108764654812372.62347412
531874.9758911134812371.69732666531875.2409057624812370.77111816
 531875.505920414812369.84490967531875.7708740234812368.91851807
531876.0358886724812367.99230957 531876.300903324812367.06610107
531876.5659179694812366.13970947 531876.300903324812365.25750732
531876.0358886724812364.37530518531875.7708740234812363.49310303
 531875.505920414812362.61090088531875.2409057624812361.72869873
531874.9758911134812360.84649658531874.7108764654812359.96429443
531874.4459228524812359.08190918531874.1809082034812358.19970703
531873.509277344 4812357.5836792 531872.83770752 4812356.9675293
 531872.166076664812356.35150146 531871.494323734812355.73529053
531870.8226928714812355.11907959531870.1508789064812354.50311279
531869.4793090824812353.88690186531868.630493164 4812353.6583252
531867.781677246 4812353.4296875531866.9329223634812353.20111084
 531866.083923344812352.97247314531865.2351074224812352.74389648
531864.3168945314812352.68450928531863.3986816414812352.62512207
531862.4805297854812352.56567383531861.5623168954812352.50610352
531860.6441040044812352.44671631531859.725891113 4812352.3873291
531858.8076782234812352.32788086531857.8892822274812352.26849365
531856.9711303714812352.20892334 531856.05291748 4812352.1494751
531855.1267089844812352.06152344531854.2005004884812351.97332764
531853.2742919924812351.88531494531852.3479003914812351.79730225
531851.4216918954812351.70928955531850.4954833984812351.62109375
531849.5692749024812351.53308105531848.6428833014812351.44488525
531847.7166748054812351.35687256531846.8010864264812350.96008301
531845.8854980474812350.56329346531844.9699096684812350.16650391
531844.0543212894812349.76971436531843.138671875 4812349.3729248
531842.2230834964812348.97607422531841.3076782234812348.57928467
531840.3920898444812348.18249512531839.4765014654812347.78570557
531838.5609130864812347.38867188531837.6453247074812346.99188232
531836.7296752934812346.59509277531835.8140869144812346.19830322
531835.0817260744812345.63452148531834.3494873054812345.07049561
531833.6171264654812344.50671387 531832.884704594812343.94268799
531832.1522827154812343.37890625 531831.420104984812342.81488037
531830.6876831054812342.25109863531829.9553222664812341.68731689
531829.2229003914812341.12329102531828.8698730474812340.31188965
531828.5169067384812339.50030518531828.163696289 4812338.6887207
 531827.81072998 4812337.8770752531827.4577026374812337.06567383
531827.1044921884812336.25408936531826.8226928714812335.35150146
531826.5407104494812334.44891357531826.2587280274812333.54632568
 531825.976684574812332.64367676531825.6948852544812331.74108887
531825.4129028324812330.83850098 531825.130920414812329.93591309
531824.8488769534812329.03308105531824.5670776374812328.13067627
531824.2850952154812327.22790527531824.0031127934812326.32531738
531823.9346923834812326.09667969531823.4318847664812325.26812744
531822.9288940434812324.43927002 531822.425903324812323.61071777
531821.9229125984812322.78192139 531821.128906254812322.38568115
531820.3348999024812321.98950195531819.5408935554812321.59332275
531818.7468872074812321.19708252531817.9528808594812320.80072021
531817.0784912114812320.39770508531816.2039184574812319.99450684
531815.3295288094812319.59130859531814.4550781254812319.18829346
531813.5805053714812318.78509521531812.7061157234812318.38189697
531811.8314819344812317.97888184531810.9570922854812317.57568359
531810.0825195314812317.17248535531809.2081298834812316.76928711
531808.3336791994812316.36627197531807.4591064454812315.96307373
531806.5847167974812315.56011963531805.7100830084812315.15692139
531804.8356933594812314.75372314531803.9611206054812314.35070801
531803.0867309574812313.94750977531802.2122802734812313.54431152
 531801.337707524812313.14129639531800.4633178714812312.73809814
531799.588684082 4812312.3348999 531798.742309574812311.94689941
531797.8958740234812311.55889893531797.0493164064812311.17108154
531796.2028808594812310.78308105531795.3565063484812310.39508057
531794.5098876954812310.00708008531793.6635131844812309.61907959
531792.817077637 4812309.2310791531791.9707031254812308.84307861
531791.1243286134812308.45507813531790.2777099614812308.06707764
531789.4312744144812307.67907715531788.6422729494812307.10211182
531787.8532714844812306.52508545 531787.064270024812305.94812012
 531786.275329594812305.37109375531785.4863281254812304.79388428
 531784.697082524812304.21691895531783.9080810554812303.63989258
 531783.119079594812303.06292725531782.3300781254812302.48590088
 531781.541076664812301.90887451531780.7520751954812301.33172607
531779.9406738284812300.93811035531779.1290893554812300.54431152
531778.317504883 4812300.1506958 531777.505920414812299.75689697
531776.6945190434812299.36328125531775.8828735354812298.96948242
531774.9404907234812299.09387207531773.9979248054812299.21807861
531773.055480957 4812299.3425293531772.112915039 4812299.4666748
531771.1704711914812299.59112549531770.227905273  4812299.715271
531769.2855224614812299.83972168531768.3428955084812299.96392822
531767.4005126954812300.08831787531766.4578857424812300.21252441
 531765.515502934812300.33691406531764.5728759774812300.46112061
531763.6304931644812300.58551025531762.687927246 4812300.7097168
531761.7454833984812300.83410645 531760.802917484812300.95831299
 531759.869079594812301.19830322531758.9351196294812301.43811035
531758.0012817384812301.67810059531757.0673217774812301.91790771
531756.1334838874812302.15771484531755.1995239264812302.39770508
531754.2656860354812302.63751221531753.3317260744812302.87750244
531752.3978881844812303.11730957531751.463928223 4812303.3571167
531750.5300903324812303.59710693531749.5961303714812303.83691406
 531748.66229248 4812304.0769043531747.7282714844812304.31671143
531746.7944946294812304.55651855531745.8604736334812304.79650879
531744.9266967774812305.03631592531743.9926757814812305.27630615
 531743.058715824812305.51611328 531742.124877934812305.75592041
531741.1909179694812305.99591064531740.2570800784812306.23571777
531739.3231201174812306.47570801531738.3892822274812306.71551514
531737.4553222664812306.95532227531736.4859008794812307.04431152
531735.5164794924812307.13311768531734.5471191414812307.22210693
531733.5775146484812307.31091309531732.6080932624812307.39990234
531731.638671875 4812307.4887085531730.6693115234812307.57751465
531729.6997070314812307.66650391531728.7302856454812307.75531006
531727.7893066414812307.55352783531726.8480834964812307.35150146
531725.907104492 4812307.1494751531724.9661254884812306.94769287
531724.0250854494812306.74572754 531723.083923344812306.54370117
531722.1428833014812306.34191895531721.2017211914812306.13989258
531720.2606811524812305.93792725531719.3197021484812305.73608398
531718.3784790044812305.53411865     531717.43754812305.33227539
531716.4965209964812305.13031006531715.5552978524812304.92828369
531714.6557006844812304.55749512531713.7561035164812304.18670654
531712.8563232424812303.81591797531711.9567260744812303.44488525
531711.0568847664812303.07409668531710.1572875984812302.70330811
 531709.257690434812302.33251953531708.3580932624812301.96173096
531707.4583129884812301.59088135 531706.558715824812301.21990967
531705.6591186524812300.84912109531704.7592773444812300.47827148
531703.8596801764812300.10748291531702.9600830084812299.73669434
531702.0603027344812299.36572266 531701.295104984812298.82751465
531700.5299072274812298.28912354531699.7645263674812297.75091553
531698.9993286134812297.21252441531698.2341308594812296.67431641
531697.4686889654812296.13592529531696.7034912114812295.59771729
531695.9382934574812295.05932617531695.1730957034812294.52111816
531694.4077148444812293.98272705 531693.642517094812293.44451904
531692.8773193364812292.90612793531692.1118774414812292.36791992
531691.3466796884812291.82952881531690.4338989264812291.51190186
531689.520874023 4812291.1940918531688.6080932624812290.87628174
  531687.69531254812290.55847168531686.7822875984812290.24090576
531685.869506836 4812289.9230957531684.9564819344812289.60528564
531684.0437011724812289.28771973 531683.130920414812288.96990967
531682.2178955084812288.65209961531681.2305297854812288.70111084
531680.2432861334812288.75012207 531679.255920414812288.79907227
531678.268676758 4812288.8480835531677.2813110354812288.89691162
531676.2938842774812288.94592285531675.3065185554812288.99487305
531674.4835205084812289.29211426531673.6605224614812289.58929443
531672.9938964844812290.16650391531672.3270874024812290.74371338
 531671.660278324812291.32092285531670.9935302734812291.89807129
531670.3267211914812292.47528076531669.6600952154812293.05249023
531668.9932861334812293.62969971531668.3264770514812294.20690918
531667.7321166994812294.86871338531667.1378784184812295.53027344
531666.5435180664812296.19207764531665.9492797854812296.85369873
531665.3549194344812297.51550293531664.7604980474812298.17712402
531664.4290771484812298.97088623531664.0977172854812299.76470947
531663.7661132814812300.55828857531663.4346923834812301.35211182
531663.1032714844812302.14587402531662.7717285164812302.93951416
531662.4835205084812303.80548096531662.1954956054812304.67132568
531661.9072875984812305.53729248 531661.619079594812306.40307617
531661.330871582  4812307.269104531661.042724609 4812308.1348877
531660.7545166024812309.00091553531660.4663085944812309.86688232
531660.1781005864812310.73272705531659.8898925784812311.59869385
 531659.601684574812312.46447754531659.4821166994812313.37750244
531659.362487793 4812314.2902832531659.242675781  4812315.203125
 531659.123107914812316.11608887531659.0034790044812317.02893066
531658.8839111334812317.94189453531658.7642822274812318.85467529
531658.644470215 4812319.7677002531658.5249023444812320.68048096
531658.4052734384812321.59332275531658.2072753914812322.50067139
531658.0090942384812323.40808105531657.8109130864812324.31530762
531657.6129150394812325.22271729531657.4146728524812326.12988281
531657.2166748054812327.03729248531657.0184936524812327.94470215
531656.8204956054812328.85192871531656.6223144534812329.75927734
531656.4240722664812330.66668701531656.2260742194812331.57391357
531656.0280761724812332.48132324 531655.829895024812333.38848877
531655.6317138674812334.29589844531655.2708740234812335.16192627
531654.9099121094812336.02770996 531654.548889164812336.89367676
531654.1881103524812337.75952148531653.8270874024812338.62548828
531653.4663085944812339.49151611531653.105285645 4812340.3572998
531652.7445068364812341.22332764531652.3834838874812342.08911133
531652.0227050784812342.95507813531651.6616821294812343.82092285
 531651.162292484812344.68151855531650.6629028324812345.54187012
531650.1635131844812346.40228271531649.6641235354812347.26287842
531649.1646728524812348.12329102531648.6652832034812348.98370361
531648.1658935554812349.84411621531647.6665039064812350.70471191
531647.1671142584812351.56512451531646.6677246094812352.42547607
531646.1682739264812353.28588867531645.6688842774812354.14648438
531645.1694946294812355.00689697531644.4193115234812355.62268066
531643.669128418 4812356.2387085531642.9188842774812356.85449219
531642.1685180664812357.47027588531641.4182739264812358.08612061
 531640.66809082 4812358.7019043531639.9179077154812359.31768799
531639.1677246094812359.93371582531638.4174804694812360.54949951
531637.667114258 4812361.1652832531636.9168701174812361.78112793
531636.0914916994812362.09869385531635.265930176 4812362.4163208
531634.4404907234812362.73370361531633.4849243164812362.79327393
 531632.529479984812362.85272217531631.5739135744812362.91210938
531630.6182861334812362.97149658531629.6627197274812363.03088379
531628.8062744144812362.69708252531627.9498901374812362.36328125
531627.0933227544812362.02972412531626.2368774414812361.69592285
531625.3803100594812361.36212158531624.5239257814812361.02832031
531623.6674804694812360.69470215531622.8109130864812360.36090088
531621.9545288094812360.02709961531621.0979003914812359.69329834
531620.257507324 4812359.1796875531619.4171142584812358.66607666
531618.5764770514812358.15228271531617.7360839844812357.63848877
531616.8956909184812357.12487793531616.0552978524812356.61132813
531615.2149047854812356.09747314531614.3743286134812355.58392334
531613.5338745124812355.07012939531612.6934814454812354.55651855
531611.8530883794812354.04290771531611.0125122074812353.52911377
531610.1721191414812353.01550293531609.3317260744812352.50189209
531608.4912719734812351.98809814531607.650878906 4812351.4744873
531606.8103027344812350.96069336531605.9849243164812350.46868896
531605.1594848634812349.97692871531604.3341064454812349.48492432
531603.5087280274812348.99291992531602.6832885744812348.50109863
531601.8579101564812348.00909424531601.0324707034812347.51708984
531600.2070922854812347.02508545531599.381713867 4812346.5333252
531598.556274414 4812346.0413208531597.7308959964812345.54931641
531596.9055175784812345.05749512531596.0800781254812344.56549072
531595.2546997074812344.07348633531594.4293212894812343.58148193
531593.6038818364812343.08972168531592.7785034184812342.59771729
   531591.9531254812342.10571289531591.127685547 4812341.6138916
531590.3023071294812341.12188721531589.4769287114812340.62988281
531588.6514892584812340.13787842 531587.826110844812339.64611816
531587.0006713874812339.15411377531586.1752929694812338.66210938
531585.6790771484812337.91729736531585.1829223634812337.17248535
531584.6867065434812336.42767334531584.1903076174812335.68267822
531583.6940917974812334.93792725531583.1978759774812334.19311523
531582.7017211914812333.44830322531582.2053222664812332.70330811
531581.9788818364812331.79650879531581.7525024414812330.88970947
531581.5261230474812329.98291016531581.2996826174812329.07611084
531581.0733032234812328.16931152531580.8466796884812327.26251221
531580.6203002934812326.35571289531580.2108764654812325.44610596
531579.8010864264812324.53649902531579.3914794924812323.62689209
531578.9821166994812322.71728516531578.5725097664812321.80767822
531578.1629028324812320.89788818531577.7532958984812319.98828125
531577.3436889654812319.07867432 531576.795104984812318.51489258
531576.2465209964812317.95092773 531575.404479984812317.46331787
     531574.56254812316.97570801 531573.720520024812316.48791504
531572.8784790044812316.00030518531572.0364990234812315.51251221
531571.1945190434812315.02490234531570.3524780274812314.53729248
531569.5104980474812314.04949951531568.5402832034812313.91748047
531567.5698852544812313.78527832 531566.599670414812313.65332031
531565.6292724614812313.52130127531564.6591186524812313.38909912
531563.6889038094812313.25708008531562.7185058594812313.12487793
531561.7482910164812312.99291992531560.7778930664812312.86090088
531559.8076782234812312.72888184531558.8372802734812312.59667969
531557.8671264654812312.46472168531556.8967285164812312.33251953
531555.9265136724812312.20050049531554.9562988284812312.06848145
531553.985900879 4812311.9362793531553.0156860354812311.80432129
531552.0452880864812311.67211914531551.0531005864812311.57287598
531550.0609130864812311.47332764531549.0687255864812311.37408447
531548.0764770514812311.27471924531547.0844726564812311.17529297
531546.0922851564812311.07592773531545.1000976564812310.97650146
531544.107910156 4812310.8770752531543.1157226564812310.77770996
531542.1234741214812310.67828369531541.1312866214812310.57891846
531540.1390991214812310.47967529531539.1469116214812310.38012695
531538.1547241214812310.28088379531537.1624755864812310.18151855
531536.1702880864812310.08209229531535.1782836914812309.98272705
531534.1860961914812309.88330078531533.1939086914812309.78387451
531532.2017211914812309.68450928531531.2094726564812309.58508301
531530.2172851564812309.48571777531529.225097656 4812309.3862915
531528.2329101564812309.28692627531527.2376708984812309.29748535
 531526.242309574812309.30810547531525.2470703134812309.31872559
 531524.251892094812309.32910156531523.2565307624812309.33972168
531522.2612915044812309.35028076531521.2659301764812309.36090088
531520.2706909184812309.37127686 531519.275329594812309.38189697
531518.2800903324812309.39251709531517.2847290044812309.40307617
531516.2894897464812309.41351318531515.2941284184812309.42407227
 531514.486511234812309.93811035531513.678710938 4812310.4520874
 531512.871093754812310.96588135531512.0632934574812311.47991943
 531511.255676274812311.99389648531510.4478759774812312.50769043
531509.6400756844812313.02172852531508.8325195314812313.53570557
531508.0247192384812314.04949951531507.1788940434812314.45428467
531506.3331298834812314.85888672531505.4873046884812315.26367188
531504.6414794924812315.66827393531503.7957153324812316.07312012
531502.9498901374812316.47790527531502.1038818364812316.88250732
531501.2581176764812317.28729248 531500.412292484812317.69189453
531499.5026855474812317.89868164531498.5930786134812318.10528564
531497.6832885744812318.31188965531496.7736816414812318.51867676
531495.8640747074812318.72528076531494.9545288094812318.93188477
531494.0446777344812319.13867188531493.1350708014812319.34527588
531492.3427124024812319.14727783531491.5501098634812318.94909668
 531490.757690434812318.75091553531489.9652709964812318.55291748
531489.1727294924812318.35467529531488.5106811524812317.72991943
531487.8486938484812317.10510254531487.1865234384812316.48028564
531486.5244750984812315.85552979531485.8623046884812315.23071289
531485.200317383  4812314.605896531484.538085938 4812313.9810791
531483.876098633 4812313.3560791531483.2139282234812312.73132324
531482.3170776374812312.68347168 531481.420104984812312.63549805
531480.5230712894812312.58770752531479.6260986334812312.53967285
531478.7291259774812312.49169922531477.8320922854812312.44390869
531476.9351196294812312.39587402531476.0444946294812312.45587158
531475.1539306644812312.51593018531474.2633056644812312.57592773
531473.3726806644812312.63592529531472.4821166994812312.69592285
531471.5914916994812312.75592041531470.7009277344812312.81591797
531469.8103027344812312.87591553531468.8579101564812312.69488525
531467.9052734384812312.51367188531466.9528808594812312.33251953
531466.0003051764812312.15130615531465.0479125984812311.97027588
531464.0952758794812311.78912354531463.1428833014812311.60791016
531462.1903076174812311.42687988531461.2379150394812311.24572754
 531460.285278324812311.06451416531459.3328857424812310.88330078
531458.380310059 4812310.7020874 531457.427917484812310.52111816
531456.4752807624812310.33990479531455.5228881844812310.15869141
  531454.57031254812309.97747803531453.6179199224812309.79650879
531452.6652832034812309.61529541531451.7128906254812309.43408203
531450.7603149414812309.25311279531449.8079223634812309.07189941
531448.8552856454812308.89068604531447.9293212894812308.64508057
531447.003295898 4812308.3994751531446.0772705084812308.15368652
531445.1513061524812307.90808105531444.2252807624812307.66247559
531443.2993164064812307.41668701531442.3732910164812307.17108154
 531441.447326664812306.92547607 531440.52130127 4812306.6796875
531439.5952758794812306.43408203531438.6693115234812306.18847656
531437.7432861334812305.94287109531436.8173217774812305.69708252
531435.8912963874812305.45147705531434.9650878914812305.20587158
531434.0393066414812304.96008301 531433.113281254812304.71447754
531432.1870727544812304.46887207531431.2611083984812304.22332764
531430.3350830084812303.97747803531429.4091186524812303.73187256
531428.4639282234812303.43609619531427.5186767584812303.14031982
531426.5733032234812302.84448242531425.6279296884812302.54870605
531424.6826782234812302.25292969531423.7374877934812301.95709229
531422.7921142584812301.66131592531421.8466796884812301.36547852
531420.9014892584812301.06988525531419.9562988284812300.77392578
531419.0109252934812300.47808838531418.0656738284812300.18249512
531417.1203002934812299.88671875531416.1751098634812299.59088135
531415.2296752934812299.29510498531414.2844848634812298.99932861
531413.3391113284812298.70349121531412.3939208984812298.40771484
531411.4484863284812298.11187744531410.5032958984812297.81610107
531409.5579223634812297.52032471531408.612670898 4812297.2244873
531407.6674804694812296.92871094531406.7221069344812296.63287354
531405.7766723634812296.33709717531404.831481934 4812296.0413208
531403.886291504 4812295.7454834531402.9409179694812295.44970703
531401.9954833984812295.15393066531401.0502929694812294.85809326
531400.1051025394812294.56231689531399.1597290044812294.26647949
531398.2144775394812293.97088623531397.2691040044812293.67492676
531396.3239135744812293.37908936531395.3784790044812293.08349609
531394.4332885744812292.78771973531393.4879150394812292.49188232
531392.5427246094812292.19610596531391.5974731454812291.90032959
531390.6520996094812291.60449219531389.7067260744812291.30871582
531388.7614746094812291.01287842 531387.816284184812290.71710205
531386.8709106454812290.42132568531385.9254760744812290.12548828
531384.9802856454812289.82971191531384.0350952154812289.53387451
 531383.089721684812289.23809814531382.1444702154812288.94232178
 531381.199096684812288.64648438 531380.253906254812288.35070801
 531379.308471684812288.05487061 531378.363281254812287.75909424
531377.4179077154812287.46331787531376.4965209964812287.14752197
531375.5750732424812286.83148193531374.6536865234812286.51550293
531373.7322998054812286.19952393 531372.810729984812285.88372803
531371.8892822274812285.56768799531370.9678955084812285.25170898
531370.0465087894812284.93591309 531369.125122074812284.61987305
531368.2036743164812284.30389404531367.2822875984812283.98809814
531366.3607177734812283.67211914 531365.43927002 4812283.3560791
531364.7749023444812282.84088135531364.1102905274812282.32592773
531363.4459228524812281.81072998531362.7814941414812281.29571533
531362.1168823244812280.78051758531361.525695801 4812279.9743042
531360.9343261724812279.16809082531360.3428955084812278.36187744
531359.751708984 4812277.5557251 531359.160278324812276.74951172
531359.061279297 4812275.8560791531358.9622802734812274.96270752
 531358.86328125 4812274.0692749531358.7640991214812273.17572021
531358.0858764654812272.65368652531357.4078979494812272.13189697
531356.7296752934812271.60992432531356.0515136724812271.08789063
531355.3732910164812270.56591797531354.6951293954812270.04388428
531353.7833251954812269.83068848531352.8712768554812269.61730957
531351.9594726564812269.40393066531351.0401000984812269.51409912
531350.1204833984812269.62408447 531349.201110844812269.73413086
531348.2814941414812269.84429932531347.3621215824812269.95428467
531346.4426879884812270.06427002531345.5230712894812270.17449951
 531344.603698734812270.28448486531343.6840820314812270.39447021
531342.6920776374812270.29547119531341.7000732424812270.19628906
531340.7081298834812270.09729004531339.7161254884812269.99829102
531338.7238769534812269.89929199531337.7318725594812269.80010986
531336.7399291994812269.70111084531335.7479248054812269.60211182
 531334.755920414812269.50292969531333.7639160164812269.40393066
531332.7719116214812269.30487061531331.7799072274812269.20568848
531330.7879028324812269.10668945531329.7958984384812269.00769043
531328.8037109384812268.90869141531327.8117065434812268.80950928
 531326.904479984812268.39868164531325.997070313 4812267.9876709
 531325.089721684812267.57672119531324.1824951174812267.16589355
531323.2750854494812266.75488281531322.3676757814812266.34387207
531321.4605102544812265.93292236531320.5531005864812265.52209473
531319.6458740234812265.11108398531318.7385253914812264.70007324
531317.8311157234812264.28930664 531316.92388916 4812263.8782959