Flow Title=07080102000898
Program Version=4.00
Number of Profiles= 8 
Profile Names=DSCH_50PCT,DSCH_20PCT,DSCH_10PCT,DSCH_4PCT,DSCH_2PCT,DSCH_1PCT,DSCH_05PCT,DSCH_02PCT
River Rch & RM=07080102000898,07080102000898  ,1581.981
   4.282   8.728  12.485  18.094    22.6  27.602  32.999  40.982
River Rch & RM=07080102000898,07080102000898  ,1355.187
   4.282   8.728  12.485  18.094    22.6  27.602  32.999  40.982
River Rch & RM=07080102000898,07080102000898  ,1284.081
   4.955   10.03   14.28  20.598  25.667  31.274  37.301  46.215
River Rch & RM=07080102000898,07080102000898  ,1045.781
   4.955   10.03   14.28  20.598  25.667  31.274  37.301  46.215
River Rch & RM=07080102000898,07080102000898  ,788.9403
   4.955   10.03   14.28  20.598  25.667  31.274  37.301  46.215
River Rch & RM=07080102000898,07080102000898  ,530.6111
   4.955   10.03   14.28  20.598  25.667  31.274  37.301  46.215
River Rch & RM=07080102000898,07080102000898  ,318.9843
   4.955   10.03   14.28  20.598  25.667  31.274  37.301  46.215
River Rch & RM=07080102000898,07080102000898  ,51.9847 
   4.955   10.03   14.28  20.598  25.667  31.274  37.301  46.215
Boundary for River Rch & Prof#=07080102000898,07080102000898  , 1 
Up Type= 0 
Dn Type= 3 
Dn Slope=0.0025
Boundary for River Rch & Prof#=07080102000898,07080102000898  , 2 
Up Type= 0 
Dn Type= 3 
Dn Slope=0.0025
Boundary for River Rch & Prof#=07080102000898,07080102000898  , 3 
Up Type= 0 
Dn Type= 3 
Dn Slope=0.0025
Boundary for River Rch & Prof#=07080102000898,07080102000898  , 4 
Up Type= 0 
Dn Type= 3 
Dn Slope=0.0025
Boundary for River Rch & Prof#=07080102000898,07080102000898  , 5 
Up Type= 0 
Dn Type= 3 
Dn Slope=0.0025
Boundary for River Rch & Prof#=07080102000898,07080102000898  , 6 
Up Type= 0 
Dn Type= 3 
Dn Slope=0.0025
Boundary for River Rch & Prof#=07080102000898,07080102000898  , 7 
Up Type= 0 
Dn Type= 3 
Dn Slope=0.0025
Boundary for River Rch & Prof#=07080102000898,07080102000898  , 8 
Up Type= 0 
Dn Type= 3 
Dn Slope=0.0025
DSS Import StartDate=
DSS Import StartTime=
DSS Import EndDate=
DSS Import EndTime=
DSS Import GetInterval= 0 
DSS Import Interval=
DSS Import GetPeak= 0 
DSS Import FillOption= 0 
